[TITLE]
;;Project Title/Notes

[OPTIONS]
;;Option             Value
FLOW_UNITS           CFS
INFILTRATION         MODIFIED_GREEN_AMPT
FLOW_ROUTING         DYNWAVE
LINK_OFFSETS         DEPTH
MIN_SLOPE            0.01
ALLOW_PONDING        NO
SKIP_STEADY_STATE    NO

START_DATE           06/27/2023
START_TIME           02:27:00
REPORT_START_DATE    06/27/2023
REPORT_START_TIME    02:27:00
END_DATE             06/27/2023
END_TIME             22:27:00
SWEEP_START          01/01
SWEEP_END            12/31
DRY_DAYS             0
REPORT_STEP          00:05:00
WET_STEP             00:01:00
DRY_STEP             00:20:00
ROUTING_STEP         1
RULE_STEP            00:00:00

INERTIAL_DAMPING     NONE
NORMAL_FLOW_LIMITED  BOTH
FORCE_MAIN_EQUATION  H-W
SURCHARGE_METHOD     Slot
VARIABLE_STEP        0.75
LENGTHENING_STEP     0
MIN_SURFAREA         12.566
MAX_TRIALS           12
HEAD_TOLERANCE       0.005
SYS_FLOW_TOL         5
LAT_FLOW_TOL         5
MINIMUM_STEP         0.5
THREADS              1

[EVAPORATION]
;;Data Source    Parameters
;;-------------- ----------------
CONSTANT         0.0
DRY_ONLY         NO

[RAINGAGES]
;;Name           Format    Interval SCF      Source    
;;-------------- --------- -------- -------- ----------
Gage1            CUMULATIVE 0:05     0        TIMESERIES 6/27/2023       

[SUBCATCHMENTS]
;;Name           Rain Gage        Outlet           Area     %Imperv  Width    %Slope   CurbLen  SnowPack        
;;-------------- ---------------- ---------------- -------- -------- -------- -------- -------- ----------------
S1               Gage1            J1-S             91.41    33.30242871 1995.449724 6.27 0                      
S10              Gage1            J266-S           43.5     69.11270747 1376.539139 5.3 0                       
S11              Gage1            J413-S           106.09   83.62770412 2149.716353 4.36 0                      
S12              Gage1            J624-S           117.42   83.7080915 2261.59572 4.85 0                        
S13              Gage1            J471-S           141.95   70.68648466 2486.632663 5.8 0                       
S14              Gage1            J632-S           42.39    78.0433483 1358.862907 4.3 0                        
S15              Gage1            J329-S           9.01     78.28281717 626.4787307 8.99 0                      
S16              Gage1            J361-S           119.58   78.14825474 2282.302522 5.13 0                      
S17              Gage1            J338-S           45.5     82.16921236 1407.828115 5.26 0                      
S18              Gage1            J460-S           52.08    55.2711584 1506.188833 4.36 0                       
S19              Gage1            J433-S           82.54    68.1239207 1896.165183 6.6 0                        
S2               Gage1            J268-S           99.82    51.64726976 2085.224017 6.07 0                      
S20              Gage1            J253-S           2.8      82.59313041 349.2391731 1.96 0                      
S21              Gage1            J253-S           4.77     84.56093147 455.8302316 5.09 0                      
S22              Gage1            J659-S           128      80.35973411 2361.287784 4.76 0                      
S23              Gage1            J421-S           1.74     87.83362006 275.3078277 3.03 0                      
S24              Gage1            J506-S           35.67    88.29284952 1246.509206 3.27 0                      
S25              Gage1            J421-S           49.26    87.1548573 1464.8432 3.05  0                        
S26              Gage1            J480-S           98.26    88.41722565 2068.865776 3.8 0                       
S27              Gage1            J507-S           113.2    84.47947399 2220.583707 3.8 0                       
S28              Gage1            J461-S           23.21    85.59281822 1005.498682 3.78 0                      
S29              Gage1            J456-S           2.72     87.53998102 344.213887 3.11 0                       
S3               Gage1            J273-S           37.26    67.04457236 1273.988069 5.14 0                      
S30              Gage1            J456-S           1.61     88.94932217 264.823715 3.09 0                       
S31              Gage1            J456-S           10.8     84.99968378 685.8921198 2.86 0                      
S32              Gage1            J619-S           68.78    83.6343075 1730.912129 5.67 0                       
S33              Gage1            J592-S           0.96     78.89858922 204.4935207 2.72 0                      
S34              Gage1            J789-S           55.45    80.75966532 1554.156363 3.21 0                      
S35              Gage1            J484-S           29.69    65.46692371 1137.231902 4.52 0                      
S36              Gage1            J208-S           98.54    87.31309889 2071.811381 4.68 0                      
S37              Gage1            J534-S           53.94    73.87097479 1532.849112 4.55 0                      
S38              Gage1            J712-S           46.2     86.92693106 1418.616227 4.53 0                      
S39              Gage1            J484-S           11.04    88.7447166 693.4712683 3.76 0                       
S4               Gage1            J260-S           12.07    57.44199755 725.0994415 4.7 0                       
S40              Gage1            J756-S           129.1    84.13877775 2371.412237 4.47 0                      
S41              Gage1            J49-S            28.53    78.52115182 1114.79451 5.65 0                       
S42              Gage1            J492-S           34.13    86.69133011 1219.304228 3.51 0                      
S43              Gage1            J714-S           66.9     83.51883004 1707.092265 5.35 0                      
S44              Gage1            J587-S           60.68    78.48415134 1625.798512 3.41 0                      
S45              Gage1            J782-S           59.33    33.84296855 1607.61152 5.12 0                       
S46              Gage1            J138-S           12.6     85.62540365 740.8481626 4.03 0                      
S47              Gage1            J50-S            22.08    82.72016733 980.7164728 2.79 0                      
S48              Gage1            J105-S           42.37    87.75055912 1358.542307 4.68 0                      
S49              Gage1            J748-S           5.71     87.82013854 498.7259769 4.17 0                      
S5               Gage1            J571-S           103.39   66.43980583 2122.184818 8.45 0                      
S50              Gage1            J141-S           44.66    85.64060415 1394.772239 4.67 0                      
S51              Gage1            J749-S           31.76    87.29193008 1176.208145 2.66 0                      
S52              Gage1            J782-S           35.64    22.42421991 1245.984912 6.55 0                      
S53              Gage1            J204-S           31.26    84.63517264 1166.91285 2.7 0                        
S54              Gage1            J733-S           28.34    76.54031834 1111.076235 5.6 0                       
S55              Gage1            J675-S           59.38    77.13032658 1608.28878 4.41 0                       
S56              Gage1            J782-S           1.18     21.59026949 226.7174453 1.42 0                      
S57              Gage1            J131-S           1.16     86.23059315 224.7879 1.67  0                        
S58              Gage1            J60-S            44.56    84.53258155 1393.209819 3.25 0                      
S59              Gage1            J131-S           0.82     79.25088554 188.995238 4.53 0                       
S6               Gage1            J328-S           89.6     80.52824437 1975.5951 5.04 0                        
S60              Gage1            J792-S           94.18    83.72739969 2025.45817 4.07 0                       
S62              Gage1            J163-S           49.6     82.03064447 1469.889792 3.69 0                      
S63              Gage1            J548-S           115.99   84.71193638 2247.782107 4.31 0                      
S64              Gage1            J751-S           38.15    86.73856852 1289.113649 2.38 0                      
S65              Gage1            J761-S           19.67    87.12092497 925.6485294 1.78 0                      
S67              Gage1            J65              36.49    67.71313961 1260.755488 8.58 0                      
S69              Gage1            J171-S           17.71    87.42491909 878.3208981 4.62 0                      
S7               Gage1            J787-S           174.6    59.15371352 2757.820879 5.44 0                      
S70              Gage1            J722-S           13.11    87.27742784 755.6927947 4.87 0                      
S71              Gage1            J732-S           1.3      87.71139856 237.9663842 1.95 0                      
S72              Gage1            J786             5.25     85.48465248 478.2154326 2.04 0                      
S73              Gage1            J798             3.83     89.2528874 408.454159 5.46 0                        
S74              Gage1            Out126           2.82     84.09362545 350.4842365 3.21 0                      
S75              Gage1            J762-S           35.19    86.87020243 1238.093858 3.99 0                      
S77              Gage1            J694-S           0.17     80.92585135 86.05347175 6.76 0                      
S78              Gage1            J775             28.51    84.61214485 1114.403697 2.44 0                      
S79              Gage1            J2               14.97    86.94299355 807.5228789 4.99 0                      
S8               Gage1            J280-S           147.03   83.574568 2530.736415 5.11 0                        
S80              Gage1            J686-S           34.9     86.64010365 1232.981752 3.35 0                      
S81              Gage1            J556-S           37.875   81.80391089 1284.464117 4.32 0                      
S83              Gage1            J80-S            18.48    75.10469004 897.2116807 7.51 0                      
S84              Gage1            J72-S            32.2     83.26793116 1184.327657 3.84 0                      
S85              Gage1            J78-S            61.72    85.25210808 1639.671674 5.67 0                      
S86              Gage1            J177-S           46.39    87.69777532 1421.530302 4.23 0                      
S87              Gage1            J2               3.45     86.11713832 387.6622241 5.3 0                       
S88              Gage1            J90              16.65    86.22289923 851.6302014 4.78 0                      
S89              Gage1            J231-S           0.48     83.80975674 144.5987552 1.98 0                      
S9               Gage1            J801-S           1.13     87.60148727 221.8621193 3.41 0                      
S90              Gage1            J42-S            65.65    80.80779225 1691.068893 4.27 0                      
S91              Gage1            J234-S           66.03    83.25488266 1695.956014 4.51 0                      
S92              Gage1            J541-S           25.45    88.71078219 1052.901705 2.92 0                      
S93              Gage1            Out47            36.63    85.38797026 1263.171722 4.49 0                      
S94              Gage1            J34-S            58.68    84.81080688 1598.781036 5.06 0                      
S95              Gage1            J45-S            51.38    71.96699836 1496.032353 3.29 0                      
S96              Gage1            J46-S            46.75    86.23600729 1427.035388 2.87 0                      
S97              Gage1            J238-S           12.17    85.73779423 728.0969716 4.94 0                      

[SUBAREAS]
;;Subcatchment   N-Imperv   N-Perv     S-Imperv   S-Perv     PctZero    RouteTo    PctRouted 
;;-------------- ---------- ---------- ---------- ---------- ---------- ---------- ----------
S1               0.015      0.2        0.05       0.15       0          PERVIOUS   75        
S10              0.015      0.2        0.05       0.15       0          PERVIOUS   75        
S11              0.015      0.2        0.05       0.15       0          PERVIOUS   75        
S12              0.015      0.2        0.05       0.15       0          PERVIOUS   75        
S13              0.015      0.2        0.05       0.15       0          PERVIOUS   75        
S14              0.015      0.2        0.05       0.15       0          PERVIOUS   75        
S15              0.015      0.2        0.05       0.15       0          PERVIOUS   75        
S16              0.015      0.2        0.05       0.15       0          PERVIOUS   75        
S17              0.015      0.2        0.05       0.15       0          PERVIOUS   75        
S18              0.015      0.2        0.05       0.15       0          PERVIOUS   75        
S19              0.015      0.2        0.05       0.15       0          PERVIOUS   75        
S2               0.015      0.2        0.05       0.15       0          PERVIOUS   75        
S20              0.015      0.2        0.05       0.15       0          PERVIOUS   75        
S21              0.015      0.2        0.05       0.15       0          PERVIOUS   75        
S22              0.015      0.2        0.05       0.15       0          PERVIOUS   75        
S23              0.015      0.2        0.05       0.15       0          PERVIOUS   75        
S24              0.015      0.2        0.05       0.15       0          PERVIOUS   75        
S25              0.015      0.2        0.05       0.15       0          PERVIOUS   75        
S26              0.015      0.2        0.05       0.15       0          PERVIOUS   75        
S27              0.015      0.2        0.05       0.15       0          PERVIOUS   75        
S28              0.015      0.2        0.05       0.15       0          PERVIOUS   75        
S29              0.015      0.2        0.05       0.15       0          PERVIOUS   75        
S3               0.015      0.2        0.05       0.15       0          PERVIOUS   75        
S30              0.015      0.2        0.05       0.15       0          PERVIOUS   75        
S31              0.015      0.2        0.05       0.15       0          PERVIOUS   75        
S32              0.015      0.2        0.05       0.15       0          PERVIOUS   75        
S33              0.015      0.2        0.05       0.15       0          PERVIOUS   75        
S34              0.015      0.2        0.05       0.15       0          PERVIOUS   75        
S35              0.015      0.2        0.05       0.15       0          PERVIOUS   75        
S36              0.015      0.2        0.05       0.15       0          PERVIOUS   75        
S37              0.015      0.2        0.05       0.15       0          PERVIOUS   75        
S38              0.015      0.2        0.05       0.15       0          PERVIOUS   75        
S39              0.015      0.2        0.05       0.15       0          PERVIOUS   75        
S4               0.015      0.2        0.05       0.15       0          PERVIOUS   75        
S40              0.015      0.2        0.05       0.15       0          PERVIOUS   75        
S41              0.015      0.2        0.05       0.15       0          PERVIOUS   75        
S42              0.015      0.2        0.05       0.15       0          PERVIOUS   75        
S43              0.015      0.2        0.05       0.15       0          PERVIOUS   75        
S44              0.015      0.2        0.05       0.15       0          PERVIOUS   75        
S45              0.015      0.2        0.05       0.15       0          PERVIOUS   75        
S46              0.015      0.2        0.05       0.15       0          PERVIOUS   75        
S47              0.015      0.2        0.05       0.15       0          PERVIOUS   75        
S48              0.015      0.2        0.05       0.15       0          PERVIOUS   75        
S49              0.015      0.2        0.05       0.15       0          PERVIOUS   75        
S5               0.015      0.2        0.05       0.15       0          PERVIOUS   75        
S50              0.015      0.2        0.05       0.15       0          PERVIOUS   75        
S51              0.015      0.2        0.05       0.15       0          PERVIOUS   75        
S52              0.015      0.2        0.05       0.15       0          PERVIOUS   75        
S53              0.015      0.2        0.05       0.15       0          PERVIOUS   75        
S54              0.015      0.2        0.05       0.15       0          PERVIOUS   75        
S55              0.015      0.2        0.05       0.15       0          PERVIOUS   75        
S56              0.015      0.2        0.05       0.15       0          PERVIOUS   75        
S57              0.015      0.2        0.05       0.15       0          PERVIOUS   75        
S58              0.015      0.2        0.05       0.15       0          PERVIOUS   75        
S59              0.015      0.2        0.05       0.15       0          PERVIOUS   75        
S6               0.015      0.2        0.05       0.15       0          PERVIOUS   75        
S60              0.015      0.2        0.05       0.15       0          PERVIOUS   75        
S62              0.015      0.2        0.05       0.15       0          PERVIOUS   75        
S63              0.015      0.2        0.05       0.15       0          PERVIOUS   75        
S64              0.015      0.2        0.05       0.15       0          PERVIOUS   75        
S65              0.015      0.2        0.05       0.15       0          PERVIOUS   75        
S67              0.015      0.2        0.05       0.15       0          PERVIOUS   75        
S69              0.015      0.2        0.05       0.15       0          PERVIOUS   75        
S7               0.015      0.2        0.05       0.15       0          PERVIOUS   75        
S70              0.015      0.2        0.05       0.15       0          PERVIOUS   75        
S71              0.015      0.2        0.05       0.15       0          PERVIOUS   75        
S72              0.015      0.2        0.05       0.15       0          PERVIOUS   75        
S73              0.015      0.2        0.05       0.15       0          PERVIOUS   75        
S74              0.015      0.2        0.05       0.15       0          PERVIOUS   75        
S75              0.015      0.2        0.05       0.15       0          PERVIOUS   75        
S77              0.015      0.2        0.05       0.15       0          PERVIOUS   75        
S78              0.015      0.2        0.05       0.15       0          PERVIOUS   75        
S79              0.015      0.2        0.05       0.15       0          PERVIOUS   75        
S8               0.015      0.2        0.05       0.15       0          PERVIOUS   75        
S80              0.015      0.2        0.05       0.15       0          PERVIOUS   75        
S81              0.015      0.2        0.05       0.15       0          PERVIOUS   75        
S83              0.015      0.2        0.05       0.15       0          PERVIOUS   75        
S84              0.015      0.2        0.05       0.15       0          PERVIOUS   75        
S85              0.015      0.2        0.05       0.15       0          PERVIOUS   75        
S86              0.015      0.2        0.05       0.15       0          PERVIOUS   75        
S87              0.015      0.2        0.05       0.15       0          PERVIOUS   75        
S88              0.015      0.2        0.05       0.15       0          PERVIOUS   75        
S89              0.015      0.2        0.05       0.15       0          PERVIOUS   75        
S9               0.015      0.2        0.05       0.15       0          PERVIOUS   75        
S90              0.015      0.2        0.05       0.15       0          PERVIOUS   75        
S91              0.015      0.2        0.05       0.15       0          PERVIOUS   75        
S92              0.015      0.2        0.05       0.15       0          PERVIOUS   75        
S93              0.015      0.2        0.05       0.15       0          PERVIOUS   75        
S94              0.015      0.2        0.05       0.15       0          PERVIOUS   75        
S95              0.015      0.2        0.05       0.15       0          PERVIOUS   75        
S96              0.015      0.2        0.05       0.15       0          PERVIOUS   75        
S97              0.015      0.2        0.05       0.15       0          PERVIOUS   75        

[INFILTRATION]
;;Subcatchment   Param1     Param2     Param3     Param4     Param5    
;;-------------- ---------- ---------- ---------- ---------- ----------
S1               21.7       0.05       0.21       0          0         
S10              21.7       0.05       0.21       0          0         
S11              21.7       0.05       0.21       0          0         
S12              21.7       0.05       0.21       0          0         
S13              21.7       0.05       0.21       0          0         
S14              21.7       0.05       0.21       0          0         
S15              21.7       0.05       0.21       0          0         
S16              21.7       0.05       0.21       0          0         
S17              21.7       0.05       0.21       0          0         
S18              21.7       0.05       0.21       0          0         
S19              21.7       0.05       0.21       0          0         
S2               21.7       0.05       0.21       0          0         
S20              21.7       0.05       0.21       0          0         
S21              21.7       0.05       0.21       0          0         
S22              21.7       0.05       0.21       0          0         
S23              21.7       0.05       0.21       0          0         
S24              21.7       0.05       0.21       0          0         
S25              21.7       0.05       0.21       0          0         
S26              21.7       0.05       0.21       0          0         
S27              21.7       0.05       0.21       0          0         
S28              21.7       0.05       0.21       0          0         
S29              21.7       0.05       0.21       0          0         
S3               21.7       0.05       0.21       0          0         
S30              21.7       0.05       0.21       0          0         
S31              21.7       0.05       0.21       0          0         
S32              21.7       0.05       0.21       0          0         
S33              21.7       0.05       0.21       0          0         
S34              21.7       0.05       0.21       0          0         
S35              21.7       0.05       0.21       0          0         
S36              21.7       0.05       0.21       0          0         
S37              21.7       0.05       0.21       0          0         
S38              21.7       0.05       0.21       0          0         
S39              21.7       0.05       0.21       0          0         
S4               21.7       0.05       0.21       0          0         
S40              21.7       0.05       0.21       0          0         
S41              21.7       0.05       0.21       0          0         
S42              21.7       0.05       0.21       0          0         
S43              21.7       0.05       0.21       0          0         
S44              21.7       0.05       0.21       0          0         
S45              21.7       0.05       0.21       0          0         
S46              21.7       0.05       0.21       0          0         
S47              21.7       0.05       0.21       0          0         
S48              21.7       0.05       0.21       0          0         
S49              21.7       0.05       0.21       0          0         
S5               21.7       0.05       0.21       0          0         
S50              21.7       0.05       0.21       0          0         
S51              21.7       0.05       0.21       0          0         
S52              21.7       0.05       0.21       0          0         
S53              21.7       0.05       0.21       0          0         
S54              21.7       0.05       0.21       0          0         
S55              21.7       0.05       0.21       0          0         
S56              21.7       0.05       0.21       0          0         
S57              21.7       0.05       0.21       0          0         
S58              21.7       0.05       0.21       0          0         
S59              21.7       0.05       0.21       0          0         
S6               21.7       0.05       0.21       0          0         
S60              21.7       0.05       0.21       0          0         
S62              21.7       0.05       0.21       0          0         
S63              21.7       0.05       0.21       0          0         
S64              21.7       0.05       0.21       0          0         
S65              21.7       0.05       0.21       0          0         
S67              21.7       0.05       0.21       0          0         
S69              21.7       0.05       0.21       0          0         
S7               21.7       0.05       0.21       0          0         
S70              21.7       0.05       0.21       0          0         
S71              21.7       0.05       0.21       0          0         
S72              21.7       0.05       0.21       0          0         
S73              21.7       0.05       0.21       0          0         
S74              21.7       0.05       0.21       0          0         
S75              21.7       0.05       0.21       0          0         
S77              21.7       0.05       0.21       0          0         
S78              21.7       0.05       0.21       0          0         
S79              21.7       0.05       0.21       0          0         
S8               21.7       0.05       0.21       0          0         
S80              21.7       0.05       0.21       0          0         
S81              21.7       0.05       0.21       0          0         
S83              21.7       0.05       0.21       0          0         
S84              21.7       0.05       0.21       0          0         
S85              21.7       0.05       0.21       0          0         
S86              21.7       0.05       0.21       0          0         
S87              21.7       0.05       0.21       0          0         
S88              21.7       0.05       0.21       0          0         
S89              21.7       0.05       0.21       0          0         
S9               21.7       0.05       0.21       0          0         
S90              21.7       0.05       0.21       0          0         
S91              21.7       0.05       0.21       0          0         
S92              21.7       0.05       0.21       0          0         
S93              21.7       0.05       0.21       0          0         
S94              21.7       0.05       0.21       0          0         
S95              21.7       0.05       0.21       0          0         
S96              21.7       0.05       0.21       0          0         
S97              21.7       0.05       0.21       0          0         

[LID_CONTROLS]
;;Name           Type/Layer Parameters
;;-------------- ---------- ----------
BioRetention     BC
BioRetention     SURFACE    5          0.0        0.2        1.0        5         
BioRetention     SOIL       12         0.5        0.2        0.1        0.5        10.0       3.5       
BioRetention     STORAGE    6          0.75       0.5        0          NO        
BioRetention     DRAIN      0          0.5        6          6          0          0                    

GreenRoof        GR
GreenRoof        SURFACE    5          0.0        0.2        1.0        5         
GreenRoof        SOIL       6          0.5        0.2        0.1        0.5        10.0       3.5       
GreenRoof        DRAINMAT   1          0.2        0.2       

Infil.Trench     IT
Infil.Trench     SURFACE    5          0.0        0.2        1.0        5         
Infil.Trench     STORAGE    12         0.75       0.5        0          NO        
Infil.Trench     DRAIN      0          0.5        6          6          0          0                    

PermPave         PP
PermPave         SURFACE    5          0.0        0.2        1.0        5         
PermPave         PAVEMENT   5          0.15       0          100        0          0          0         
PermPave         SOIL       6          0.5        0.2        0.1        0.5        10.0       3.5       
PermPave         STORAGE    6          0.75       0.5        0          NO        
PermPave         DRAIN      0          0.5        6          6          0          0                    

RainBarrel       RB
RainBarrel       STORAGE    60         0.75       0.5        0          NO        
RainBarrel       DRAIN      0          0.5        6          6          0          0                    

RainGarden       RG
RainGarden       SURFACE    5          0.0        0.2        1.0        5         
RainGarden       SOIL       12         0.5        0.2        0.1        0.5        10.0       3.5       